
---------- Begin Simulation Statistics ----------
sim_seconds                                  0.000006                       # Number of seconds simulated
sim_ticks                                     5984500                       # Number of ticks simulated
final_tick                                    5984500                       # Number of ticks from beginning of simulation (restored from checkpoints and never reset)
sim_freq                                 1000000000000                       # Frequency of simulated ticks
host_inst_rate                                 191566                       # Simulator instruction rate (inst/s)
host_op_rate                                   345505                       # Simulator op (including micro ops) rate (op/s)
host_tick_rate                              198844519                       # Simulator tick rate (ticks/s)
host_mem_usage                                 780716                       # Number of bytes of host memory used
host_seconds                                     0.03                       # Real time elapsed on the host
sim_insts                                        5757                       # Number of instructions simulated
sim_ops                                         10391                       # Number of ops (including micro ops) simulated
system.voltage_domain.voltage                       1                       # Voltage in Volts
system.clk_domain.clock                          1000                       # Clock period in ticks
system.mem_ctrls.bytes_read::cpu.inst           58688                       # Number of bytes read from this memory
system.mem_ctrls.bytes_read::cpu.data            7177                       # Number of bytes read from this memory
system.mem_ctrls.bytes_read::total              65865                       # Number of bytes read from this memory
system.mem_ctrls.bytes_inst_read::cpu.inst        58688                       # Number of instructions bytes read from this memory
system.mem_ctrls.bytes_inst_read::total         58688                       # Number of instructions bytes read from this memory
system.mem_ctrls.bytes_written::cpu.data         7168                       # Number of bytes written to this memory
system.mem_ctrls.bytes_written::total            7168                       # Number of bytes written to this memory
system.mem_ctrls.num_reads::cpu.inst             7336                       # Number of read requests responded to by this memory
system.mem_ctrls.num_reads::cpu.data             1080                       # Number of read requests responded to by this memory
system.mem_ctrls.num_reads::total                8416                       # Number of read requests responded to by this memory
system.mem_ctrls.num_writes::cpu.data             942                       # Number of write requests responded to by this memory
system.mem_ctrls.num_writes::total                942                       # Number of write requests responded to by this memory
system.mem_ctrls.bw_read::cpu.inst         9806667224                       # Total read bandwidth from this memory (bytes/s)
system.mem_ctrls.bw_read::cpu.data         1199264767                       # Total read bandwidth from this memory (bytes/s)
system.mem_ctrls.bw_read::total           11005931991                       # Total read bandwidth from this memory (bytes/s)
system.mem_ctrls.bw_inst_read::cpu.inst    9806667224                       # Instruction read bandwidth from this memory (bytes/s)
system.mem_ctrls.bw_inst_read::total       9806667224                       # Instruction read bandwidth from this memory (bytes/s)
system.mem_ctrls.bw_write::cpu.data        1197760882                       # Write bandwidth from this memory (bytes/s)
system.mem_ctrls.bw_write::total           1197760882                       # Write bandwidth from this memory (bytes/s)
system.mem_ctrls.bw_total::cpu.inst        9806667224                       # Total bandwidth to/from this memory (bytes/s)
system.mem_ctrls.bw_total::cpu.data        2397025650                       # Total bandwidth to/from this memory (bytes/s)
system.mem_ctrls.bw_total::total          12203692873                       # Total bandwidth to/from this memory (bytes/s)
system.membus.throughput                  12203692873                       # Throughput (bytes/s)
system.membus.data_through_bus                  73033                       # Total data (bytes)
system.membus.snoop_data_through_bus                0                       # Total snoop data (bytes)
system.cpu_voltage_domain.voltage                   1                       # Voltage in Volts
system.cpu_clk_domain.clock                       500                       # Clock period in ticks
system.cpu.apic_clk_domain.clock                 8000                       # Clock period in ticks
system.cpu.workload.num_syscalls                   11                       # Number of system calls
system.cpu.numCycles                            11970                       # number of cpu cycles simulated
system.cpu.numWorkItemsStarted                      0                       # number of work items this cpu started
system.cpu.numWorkItemsCompleted                    0                       # number of work items this cpu completed
system.cpu.committedInsts                        5757                       # Number of instructions committed
system.cpu.committedOps                         10391                       # Number of ops (including micro ops) committed
system.cpu.num_int_alu_accesses                 10278                       # Number of integer alu accesses
system.cpu.num_fp_alu_accesses                      0                       # Number of float alu accesses
system.cpu.num_func_calls                         223                       # number of times a function call or return occured
system.cpu.num_conditional_control_insts          995                       # number of instructions that are conditional controls
system.cpu.num_int_insts                        10278                       # number of integer instructions
system.cpu.num_fp_insts                             0                       # number of float instructions
system.cpu.num_int_register_reads               19419                       # number of times the integer registers were read
system.cpu.num_int_register_writes               8039                       # number of times the integer registers were written
system.cpu.num_fp_register_reads                    0                       # number of times the floating registers were read
system.cpu.num_fp_register_writes                   0                       # number of times the floating registers were written
system.cpu.num_cc_register_reads                 7078                       # number of times the CC registers were read
system.cpu.num_cc_register_writes                3874                       # number of times the CC registers were written
system.cpu.num_mem_refs                          2022                       # number of memory refs
system.cpu.num_load_insts                        1080                       # Number of load instructions
system.cpu.num_store_insts                        942                       # Number of store instructions
system.cpu.num_idle_cycles                          0                       # Number of idle cycles
system.cpu.num_busy_cycles                      11970                       # Number of busy cycles
system.cpu.not_idle_fraction                        1                       # Percentage of non-idle cycles
system.cpu.idle_fraction                            0                       # Percentage of idle cycles
system.cpu.Branches                              1317                       # Number of branches fetched
system.cpu.op_class::No_OpClass                     1      0.01%      0.01% # Class of executed instruction
system.cpu.op_class::IntAlu                      8354     80.40%     80.41% # Class of executed instruction
system.cpu.op_class::IntMult                        7      0.07%     80.47% # Class of executed instruction
system.cpu.op_class::IntDiv                         7      0.07%     80.54% # Class of executed instruction
system.cpu.op_class::FloatAdd                       0      0.00%     80.54% # Class of executed instruction
system.cpu.op_class::FloatCmp                       0      0.00%     80.54% # Class of executed instruction
system.cpu.op_class::FloatCvt                       0      0.00%     80.54% # Class of executed instruction
system.cpu.op_class::FloatMult                      0      0.00%     80.54% # Class of executed instruction
system.cpu.op_class::FloatDiv                       0      0.00%     80.54% # Class of executed instruction
system.cpu.op_class::FloatSqrt                      0      0.00%     80.54% # Class of executed instruction
system.cpu.op_class::SimdAdd                        0      0.00%     80.54% # Class of executed instruction
system.cpu.op_class::SimdAddAcc                     0      0.00%     80.54% # Class of executed instruction
system.cpu.op_class::SimdAlu                        0      0.00%     80.54% # Class of executed instruction
system.cpu.op_class::SimdCmp                        0      0.00%     80.54% # Class of executed instruction
system.cpu.op_class::SimdCvt                        0      0.00%     80.54% # Class of executed instruction
system.cpu.op_class::SimdMisc                       0      0.00%     80.54% # Class of executed instruction
system.cpu.op_class::SimdMult                       0      0.00%     80.54% # Class of executed instruction
system.cpu.op_class::SimdMultAcc                    0      0.00%     80.54% # Class of executed instruction
system.cpu.op_class::SimdShift                      0      0.00%     80.54% # Class of executed instruction
system.cpu.op_class::SimdShiftAcc                   0      0.00%     80.54% # Class of executed instruction
system.cpu.op_class::SimdSqrt                       0      0.00%     80.54% # Class of executed instruction
system.cpu.op_class::SimdFloatAdd                   0      0.00%     80.54% # Class of executed instruction
system.cpu.op_class::SimdFloatAlu                   0      0.00%     80.54% # Class of executed instruction
system.cpu.op_class::SimdFloatCmp                   0      0.00%     80.54% # Class of executed instruction
system.cpu.op_class::SimdFloatCvt                   0      0.00%     80.54% # Class of executed instruction
system.cpu.op_class::SimdFloatDiv                   0      0.00%     80.54% # Class of executed instruction
system.cpu.op_class::SimdFloatMisc                  0      0.00%     80.54% # Class of executed instruction
system.cpu.op_class::SimdFloatMult                  0      0.00%     80.54% # Class of executed instruction
system.cpu.op_class::SimdFloatMultAcc               0      0.00%     80.54% # Class of executed instruction
system.cpu.op_class::SimdFloatSqrt                  0      0.00%     80.54% # Class of executed instruction
system.cpu.op_class::MemRead                     1080     10.39%     90.93% # Class of executed instruction
system.cpu.op_class::MemWrite                     942      9.07%    100.00% # Class of executed instruction
system.cpu.op_class::IprAccess                      0      0.00%    100.00% # Class of executed instruction
system.cpu.op_class::InstPrefetch                   0      0.00%    100.00% # Class of executed instruction
system.cpu.op_class::total                      10391                       # Class of executed instruction

---------- End Simulation Statistics   ----------
